/*--------------------------------*- C++ -*----------------------------------*\
  =========                 |
  \\      /  F ield         | OpenFOAM: The Open Source CFD Toolbox
   \\    /   O peration     | Website:  https://openfoam.org
    \\  /    A nd           | Version:  9
     \\/     M anipulation  |
\*---------------------------------------------------------------------------*/
FoamFile
{
    format      ascii;
    class       dictionary;
    location    "system";
    object      fvSchemes;
}
// * * * * * * * * * * * * * * * * * * * * * * * * * * * * * * * * * * * * * //

ddtSchemes
{
    default         Euler;
    ddt(melt1_alpha1) localEuler;
}

gradSchemes
{
    default         Gauss linear;
    grad(h)         cellLimited leastSquares 1;
}

divSchemes
{
    default         Gauss upwind;   
    div(((rho*nuEff)*dev2(T(grad(U))))) Gauss linear;

    div(phi,U)      bounded Gauss linearUpwindV grad(U);
    div(phi,C.Cu)    bounded Gauss upwind;
}

laplacianSchemes
{
    default         Gauss linear uncorrected;
}

interpolationSchemes
{
    default         linear;
}

snGradSchemes
{
    default         uncorrected;
}

wallDist
{
    method meshWave;
}

// ************************************************************************* //
