/*--------------------------------*- C++ -*----------------------------------*\
  =========                 |
  \\      /  F ield         | OpenFOAM: The Open Source CFD Toolbox
   \\    /   O peration     | Website:  https://openfoam.org
    \\  /    A nd           | Version:  7
     \\/     M anipulation  |
\*---------------------------------------------------------------------------*/
FoamFile
{
    version     2.0;
    format      ascii;
    class       dictionary;
    location    "system";
    object      setFieldsDict;
}
// * * * * * * * * * * * * * * * * * * * * * * * * * * * * * * * * * * * * * //

defaultFieldValues
(
    volScalarFieldValue T 946.97
    volScalarFieldValue melt1_alpha1 1.0
);

regions
(
    cylinderToCell
    {
        p1 (0 0 -0.901);
        p2 (0 0 -0.401);
        radius 0.225;

        fieldValues
        (
            volScalarFieldValue T 358.0
            volScalarFieldValue melt1_alpha1 0.0
        );
    }
    
    cylinderToCell
    {
        p1 (0 0 -0.401);
        p2 (0 0 -0.301);
        radius 0.225;

        fieldValues
        (
            volScalarFieldValue T 383.0
            volScalarFieldValue melt1_alpha1 0.0
        );
    }
    
    cylinderToCell
    {
        p1 (0 0 -0.301);
        p2 (0 0 -0.251);
        radius 0.225;

        fieldValues
        (
            volScalarFieldValue T 433.0
            volScalarFieldValue melt1_alpha1 0.0
        );
    }

    cylinderToCell
    {
        p1 (0 0 -0.251);
        p2 (0 0 -0.131);
        radius 0.225;

        fieldValues
        (
            volScalarFieldValue T 500.0
            volScalarFieldValue melt1_alpha1 0.0
        );
    }

    cylinderToCell
    {
        p1 (0 0 -0.131);
        p2 (0 0 -0.121);
        radius 0.225;

        fieldValues
        (
            volScalarFieldValue T 510.0
            volScalarFieldValue melt1_alpha1 0.0
        );
    }

    cylinderToCell
    {
        p1 (0 0 -0.121);
        p2 (0 0 -0.107);
        radius 0.225;

        fieldValues
        (
            volScalarFieldValue T 620.0
            volScalarFieldValue melt1_alpha1 0.0
        );
    }

    cylinderToCell
    {
        p1 (0 0 -0.107);
        p2 (0 0 -0.095);
        radius 0.225;

        fieldValues
        (
            volScalarFieldValue T 805.503
            volScalarFieldValue melt1_alpha1 0.0
        );
    }

    cylinderToCell
    {
        p1 (0 0 -0.095);
        p2 (0 0 -0.061);
        radius 0.225;

        fieldValues
        (
            volScalarFieldValue T 920.10900
            volScalarFieldValue melt1_alpha1 0.51019
        );
    }

    cylinderToCell
    {
        p1 (0 0 -0.061);
        p2 (0 0 -0.041);
        radius 0.225;

        fieldValues
        (
            volScalarFieldValue T 928.236
            volScalarFieldValue melt1_alpha1 1.0
        );
    }
);


// ************************************************************************* //
