/*--------------------------------*- C++ -*----------------------------------*\
  =========                 |
  \\      /  F ield         | OpenFOAM: The Open Source CFD Toolbox
   \\    /   O peration     | Website:  https://openfoam.org
    \\  /    A nd           | Version:  9
     \\/     M anipulation  |
\*---------------------------------------------------------------------------*/
FoamFile
{
    format      ascii;
    class       dictionary;
    location    "system";
    object      controlDict;
}
// * * * * * * * * * * * * * * * * * * * * * * * * * * * * * * * * * * * * * //

DebugSwitches
{
    multicomponentAlloy     1;
}

application     test_multicomponentAlloy;

startFrom       latestTime;

startTime       0;

stopAt          endTime;

endTime         1.0;

deltaT          0.01;

writeControl    adjustableRunTime;

writeInterval   10;

purgeWrite      5;

writeFormat     binary;

writePrecision  12;

writeCompression uncompressed;

timeFormat      general;

timePrecision   12;

runTimeModifiable yes;

adjustTimeStep  yes;

maxCo           1.0;
maxAlphaCo      0.5;

libs (
);

// ************************************************************************* //
